output/1_TAP2_1/Cargas_IP_DU07_1_TAP2_1.dss
New "Load.IP_2379_1_M1" bus1="BT17342.3.4" phases=1 conn=delta model=2 kv=0.38 kw = 0.0 pf=0.92 status=variable vmaxpu=1.5 vminpu=0.93 daily="OUT_IP_1_Dia_util_DU" 
New "Load.IP_2379_1_M2" bus1="BT17342.3.4" phases=1 conn=delta model=3 kv=0.38 kw = 0.0 pf=0.92 status=variable vmaxpu=1.5 vminpu=0.93 daily="OUT_IP_1_Dia_util_DU"
 
New "Load.IP_4512_5_M1" bus1="BT64731.3.4" phases=1 conn=delta model=2 kv=0.38 kw = 0.0 pf=0.92 status=variable vmaxpu=1.5 vminpu=0.93 daily="OUT_IP_1_Dia_util_DU" 
New "Load.IP_4512_5_M2" bus1="BT64731.3.4" phases=1 conn=delta model=3 kv=0.38 kw = 0.0 pf=0.92 status=variable vmaxpu=1.5 vminpu=0.93 daily="OUT_IP_1_Dia_util_DU"
 
New "Load.IP_4513_6_M1" bus1="BT19641.3.4" phases=1 conn=delta model=2 kv=0.38 kw = 0.0 pf=0.92 status=variable vmaxpu=1.5 vminpu=0.93 daily="OUT_IP_1_Dia_util_DU" 
New "Load.IP_4513_6_M2" bus1="BT19641.3.4" phases=1 conn=delta model=3 kv=0.38 kw = 0.0 pf=0.92 status=variable vmaxpu=1.5 vminpu=0.93 daily="OUT_IP_1_Dia_util_DU"
 
New "Load.IP_4514_7_M1" bus1="BT26131.3.4" phases=1 conn=delta model=2 kv=0.38 kw = 0.0 pf=0.92 status=variable vmaxpu=1.5 vminpu=0.93 daily="OUT_IP_1_Dia_util_DU" 
New "Load.IP_4514_7_M2" bus1="BT26131.3.4" phases=1 conn=delta model=3 kv=0.38 kw = 0.0 pf=0.92 status=variable vmaxpu=1.5 vminpu=0.93 daily="OUT_IP_1_Dia_util_DU"
 
New "Load.IP_4515_8_M1" bus1="BT16431.3.4" phases=1 conn=delta model=2 kv=0.38 kw = 0.0 pf=0.92 status=variable vmaxpu=1.5 vminpu=0.93 daily="OUT_IP_1_Dia_util_DU" 
New "Load.IP_4515_8_M2" bus1="BT16431.3.4" phases=1 conn=delta model=3 kv=0.38 kw = 0.0 pf=0.92 status=variable vmaxpu=1.5 vminpu=0.93 daily="OUT_IP_1_Dia_util_DU"
 
New "Load.IP_4516_9_M1" bus1="BT16431.3.4" phases=1 conn=delta model=2 kv=0.38 kw = 0.0 pf=0.92 status=variable vmaxpu=1.5 vminpu=0.93 daily="OUT_IP_1_Dia_util_DU" 
New "Load.IP_4516_9_M2" bus1="BT16431.3.4" phases=1 conn=delta model=3 kv=0.38 kw = 0.0 pf=0.92 status=variable vmaxpu=1.5 vminpu=0.93 daily="OUT_IP_1_Dia_util_DU"
 
New "Load.IP_4517_10_M1" bus1="ET1_171.3.4" phases=1 conn=delta model=2 kv=0.38 kw = 0.0 pf=0.92 status=variable vmaxpu=1.5 vminpu=0.93 daily="OUT_IP_1_Dia_util_DU" 
New "Load.IP_4517_10_M2" bus1="ET1_171.3.4" phases=1 conn=delta model=3 kv=0.38 kw = 0.0 pf=0.92 status=variable vmaxpu=1.5 vminpu=0.93 daily="OUT_IP_1_Dia_util_DU"
 
New "Load.IP_4465_20_M1" bus1="BT8651.3.4" phases=1 conn=delta model=2 kv=0.38 kw = 0.0 pf=0.92 status=variable vmaxpu=1.5 vminpu=0.93 daily="OUT_IP_1_Dia_util_DU" 
New "Load.IP_4465_20_M2" bus1="BT8651.3.4" phases=1 conn=delta model=3 kv=0.38 kw = 0.0 pf=0.92 status=variable vmaxpu=1.5 vminpu=0.93 daily="OUT_IP_1_Dia_util_DU"
 
New "Load.IP_4466_21_M1" bus1="BT83621.3.4" phases=1 conn=delta model=2 kv=0.38 kw = 0.0 pf=0.92 status=variable vmaxpu=1.5 vminpu=0.93 daily="OUT_IP_1_Dia_util_DU" 
New "Load.IP_4466_21_M2" bus1="BT83621.3.4" phases=1 conn=delta model=3 kv=0.38 kw = 0.0 pf=0.92 status=variable vmaxpu=1.5 vminpu=0.93 daily="OUT_IP_1_Dia_util_DU"
 
New "Load.IP_4491_46_M1" bus1="BT86791.3.4" phases=1 conn=delta model=2 kv=0.38 kw = 0.0 pf=0.92 status=variable vmaxpu=1.5 vminpu=0.93 daily="OUT_IP_1_Dia_util_DU" 
New "Load.IP_4491_46_M2" bus1="BT86791.3.4" phases=1 conn=delta model=3 kv=0.38 kw = 0.0 pf=0.92 status=variable vmaxpu=1.5 vminpu=0.93 daily="OUT_IP_1_Dia_util_DU"
 
New "Load.IP_4492_47_M1" bus1="BT86801.3.4" phases=1 conn=delta model=2 kv=0.38 kw = 0.0 pf=0.92 status=variable vmaxpu=1.5 vminpu=0.93 daily="OUT_IP_1_Dia_util_DU" 
New "Load.IP_4492_47_M2" bus1="BT86801.3.4" phases=1 conn=delta model=3 kv=0.38 kw = 0.0 pf=0.92 status=variable vmaxpu=1.5 vminpu=0.93 daily="OUT_IP_1_Dia_util_DU"
 
New "Load.IP_4493_48_M1" bus1="BT86811.3.4" phases=1 conn=delta model=2 kv=0.38 kw = 0.0 pf=0.92 status=variable vmaxpu=1.5 vminpu=0.93 daily="OUT_IP_1_Dia_util_DU" 
New "Load.IP_4493_48_M2" bus1="BT86811.3.4" phases=1 conn=delta model=3 kv=0.38 kw = 0.0 pf=0.92 status=variable vmaxpu=1.5 vminpu=0.93 daily="OUT_IP_1_Dia_util_DU"
 
New "Load.IP_4494_49_M1" bus1="BT86821.3.4" phases=1 conn=delta model=2 kv=0.38 kw = 0.0 pf=0.92 status=variable vmaxpu=1.5 vminpu=0.93 daily="OUT_IP_1_Dia_util_DU" 
New "Load.IP_4494_49_M2" bus1="BT86821.3.4" phases=1 conn=delta model=3 kv=0.38 kw = 0.0 pf=0.92 status=variable vmaxpu=1.5 vminpu=0.93 daily="OUT_IP_1_Dia_util_DU"
 
New "Load.IP_4495_50_M1" bus1="BT86831.3.4" phases=1 conn=delta model=2 kv=0.38 kw = 0.0 pf=0.92 status=variable vmaxpu=1.5 vminpu=0.93 daily="OUT_IP_1_Dia_util_DU" 
New "Load.IP_4495_50_M2" bus1="BT86831.3.4" phases=1 conn=delta model=3 kv=0.38 kw = 0.0 pf=0.92 status=variable vmaxpu=1.5 vminpu=0.93 daily="OUT_IP_1_Dia_util_DU"
 
New "Load.IP_4496_51_M1" bus1="BT86841.3.4" phases=1 conn=delta model=2 kv=0.38 kw = 0.0 pf=0.92 status=variable vmaxpu=1.5 vminpu=0.93 daily="OUT_IP_1_Dia_util_DU" 
New "Load.IP_4496_51_M2" bus1="BT86841.3.4" phases=1 conn=delta model=3 kv=0.38 kw = 0.0 pf=0.92 status=variable vmaxpu=1.5 vminpu=0.93 daily="OUT_IP_1_Dia_util_DU"
 
New "Load.IP_4497_52_M1" bus1="BT86781.3.4" phases=1 conn=delta model=2 kv=0.38 kw = 0.0 pf=0.92 status=variable vmaxpu=1.5 vminpu=0.93 daily="OUT_IP_1_Dia_util_DU" 
New "Load.IP_4497_52_M2" bus1="BT86781.3.4" phases=1 conn=delta model=3 kv=0.38 kw = 0.0 pf=0.92 status=variable vmaxpu=1.5 vminpu=0.93 daily="OUT_IP_1_Dia_util_DU"
 
New "Load.IP_4068_53_M1" bus1="BT2372.3.4" phases=1 conn=delta model=2 kv=0.38 kw = 0.432213896058577 pf=0.92 status=variable vmaxpu=1.5 vminpu=0.93 daily="OUT_IP_1_Dia_util_DU" 
New "Load.IP_4068_53_M2" bus1="BT2372.3.4" phases=1 conn=delta model=3 kv=0.38 kw = 0.432213896058577 pf=0.92 status=variable vmaxpu=1.5 vminpu=0.93 daily="OUT_IP_1_Dia_util_DU"
 
New "Load.IP_4086_54_M1" bus1="BT2372.3.4" phases=1 conn=delta model=2 kv=0.38 kw = 0.7065034839419049 pf=0.92 status=variable vmaxpu=1.5 vminpu=0.93 daily="OUT_IP_1_Dia_util_DU" 
New "Load.IP_4086_54_M2" bus1="BT2372.3.4" phases=1 conn=delta model=3 kv=0.38 kw = 0.7065034839419049 pf=0.92 status=variable vmaxpu=1.5 vminpu=0.93 daily="OUT_IP_1_Dia_util_DU"
 
New "Load.IP_4499_55_M1" bus1="ET1_165.3.4" phases=1 conn=delta model=2 kv=0.38 kw = 0.0 pf=0.92 status=variable vmaxpu=1.5 vminpu=0.93 daily="OUT_IP_1_Dia_util_DU" 
New "Load.IP_4499_55_M2" bus1="ET1_165.3.4" phases=1 conn=delta model=3 kv=0.38 kw = 0.0 pf=0.92 status=variable vmaxpu=1.5 vminpu=0.93 daily="OUT_IP_1_Dia_util_DU"
 
New "Load.IP_4500_56_M1" bus1="ET1_165.3.4" phases=1 conn=delta model=2 kv=0.38 kw = 0.0 pf=0.92 status=variable vmaxpu=1.5 vminpu=0.93 daily="OUT_IP_1_Dia_util_DU" 
New "Load.IP_4500_56_M2" bus1="ET1_165.3.4" phases=1 conn=delta model=3 kv=0.38 kw = 0.0 pf=0.92 status=variable vmaxpu=1.5 vminpu=0.93 daily="OUT_IP_1_Dia_util_DU"
 
New "Load.IP_4507_60_M1" bus1="BT2401.3.4" phases=1 conn=delta model=2 kv=0.38 kw = 0.0 pf=0.92 status=variable vmaxpu=1.5 vminpu=0.93 daily="OUT_IP_1_Dia_util_DU" 
New "Load.IP_4507_60_M2" bus1="BT2401.3.4" phases=1 conn=delta model=3 kv=0.38 kw = 0.0 pf=0.92 status=variable vmaxpu=1.5 vminpu=0.93 daily="OUT_IP_1_Dia_util_DU"
 
New "Load.IP_1503_78_M1" bus1="BT9932.3.4" phases=1 conn=delta model=2 kv=0.38 kw = 0.17731852145992905 pf=0.92 status=variable vmaxpu=1.5 vminpu=0.93 daily="OUT_IP_1_Dia_util_DU" 
New "Load.IP_1503_78_M2" bus1="BT9932.3.4" phases=1 conn=delta model=3 kv=0.38 kw = 0.17731852145992905 pf=0.92 status=variable vmaxpu=1.5 vminpu=0.93 daily="OUT_IP_1_Dia_util_DU"
 
New "Load.IP_2972_79_M1" bus1="BT18773.3.4" phases=1 conn=delta model=2 kv=0.38 kw = 0.17731852145992905 pf=0.92 status=variable vmaxpu=1.5 vminpu=0.93 daily="OUT_IP_1_Dia_util_DU" 
New "Load.IP_2972_79_M2" bus1="BT18773.3.4" phases=1 conn=delta model=3 kv=0.38 kw = 0.17731852145992905 pf=0.92 status=variable vmaxpu=1.5 vminpu=0.93 daily="OUT_IP_1_Dia_util_DU"
 
New "Load.IP_196_82_M1" bus1="BT16182.3.4" phases=1 conn=delta model=2 kv=0.38 kw = 0.0 pf=0.92 status=variable vmaxpu=1.5 vminpu=0.93 daily="OUT_IP_1_Dia_util_DU" 
New "Load.IP_196_82_M2" bus1="BT16182.3.4" phases=1 conn=delta model=3 kv=0.38 kw = 0.0 pf=0.92 status=variable vmaxpu=1.5 vminpu=0.93 daily="OUT_IP_1_Dia_util_DU"
 
New "Load.IP_1071_86_M1" bus1="BT24782.3.4" phases=1 conn=delta model=2 kv=0.38 kw = 0.0 pf=0.92 status=variable vmaxpu=1.5 vminpu=0.93 daily="OUT_IP_1_Dia_util_DU" 
New "Load.IP_1071_86_M2" bus1="BT24782.3.4" phases=1 conn=delta model=3 kv=0.38 kw = 0.0 pf=0.92 status=variable vmaxpu=1.5 vminpu=0.93 daily="OUT_IP_1_Dia_util_DU"
 
New "Load.IP_4423_87_M1" bus1="BT86321.3.4" phases=1 conn=delta model=2 kv=0.38 kw = 0.17731852145992905 pf=0.92 status=variable vmaxpu=1.5 vminpu=0.93 daily="OUT_IP_1_Dia_util_DU" 
New "Load.IP_4423_87_M2" bus1="BT86321.3.4" phases=1 conn=delta model=3 kv=0.38 kw = 0.17731852145992905 pf=0.92 status=variable vmaxpu=1.5 vminpu=0.93 daily="OUT_IP_1_Dia_util_DU"
 
New "Load.IP_4424_88_M1" bus1="BT86331.3.4" phases=1 conn=delta model=2 kv=0.38 kw = 0.17731852145992905 pf=0.92 status=variable vmaxpu=1.5 vminpu=0.93 daily="OUT_IP_1_Dia_util_DU" 
New "Load.IP_4424_88_M2" bus1="BT86331.3.4" phases=1 conn=delta model=3 kv=0.38 kw = 0.17731852145992905 pf=0.92 status=variable vmaxpu=1.5 vminpu=0.93 daily="OUT_IP_1_Dia_util_DU"
 
New "Load.IP_4425_89_M1" bus1="BT86401.3.4" phases=1 conn=delta model=2 kv=0.38 kw = 0.10805347401464425 pf=0.92 status=variable vmaxpu=1.5 vminpu=0.93 daily="OUT_IP_1_Dia_util_DU" 
New "Load.IP_4425_89_M2" bus1="BT86401.3.4" phases=1 conn=delta model=3 kv=0.38 kw = 0.10805347401464425 pf=0.92 status=variable vmaxpu=1.5 vminpu=0.93 daily="OUT_IP_1_Dia_util_DU"
 
New "Load.IP_4426_90_M1" bus1="BT86391.3.4" phases=1 conn=delta model=2 kv=0.38 kw = 0.17731852145992905 pf=0.92 status=variable vmaxpu=1.5 vminpu=0.93 daily="OUT_IP_1_Dia_util_DU" 
New "Load.IP_4426_90_M2" bus1="BT86391.3.4" phases=1 conn=delta model=3 kv=0.38 kw = 0.17731852145992905 pf=0.92 status=variable vmaxpu=1.5 vminpu=0.93 daily="OUT_IP_1_Dia_util_DU"
 
New "Load.IP_4427_91_M1" bus1="BT86381.3.4" phases=1 conn=delta model=2 kv=0.38 kw = 0.17731852145992905 pf=0.92 status=variable vmaxpu=1.5 vminpu=0.93 daily="OUT_IP_1_Dia_util_DU" 
New "Load.IP_4427_91_M2" bus1="BT86381.3.4" phases=1 conn=delta model=3 kv=0.38 kw = 0.17731852145992905 pf=0.92 status=variable vmaxpu=1.5 vminpu=0.93 daily="OUT_IP_1_Dia_util_DU"
 
New "Load.IP_4428_92_M1" bus1="BT86371.3.4" phases=1 conn=delta model=2 kv=0.38 kw = 0.17731852145992905 pf=0.92 status=variable vmaxpu=1.5 vminpu=0.93 daily="OUT_IP_1_Dia_util_DU" 
New "Load.IP_4428_92_M2" bus1="BT86371.3.4" phases=1 conn=delta model=3 kv=0.38 kw = 0.17731852145992905 pf=0.92 status=variable vmaxpu=1.5 vminpu=0.93 daily="OUT_IP_1_Dia_util_DU"
 
New "Load.IP_4429_93_M1" bus1="BT86231.3.4" phases=1 conn=delta model=2 kv=0.38 kw = 0.17731852145992905 pf=0.92 status=variable vmaxpu=1.5 vminpu=0.93 daily="OUT_IP_1_Dia_util_DU" 
New "Load.IP_4429_93_M2" bus1="BT86231.3.4" phases=1 conn=delta model=3 kv=0.38 kw = 0.17731852145992905 pf=0.92 status=variable vmaxpu=1.5 vminpu=0.93 daily="OUT_IP_1_Dia_util_DU"
 
New "Load.IP_4430_94_M1" bus1="BT86241.3.4" phases=1 conn=delta model=2 kv=0.38 kw = 0.17731852145992905 pf=0.92 status=variable vmaxpu=1.5 vminpu=0.93 daily="OUT_IP_1_Dia_util_DU" 
New "Load.IP_4430_94_M2" bus1="BT86241.3.4" phases=1 conn=delta model=3 kv=0.38 kw = 0.17731852145992905 pf=0.92 status=variable vmaxpu=1.5 vminpu=0.93 daily="OUT_IP_1_Dia_util_DU"
 
New "Load.IP_4431_95_M1" bus1="BT86251.3.4" phases=1 conn=delta model=2 kv=0.38 kw = 0.17731852145992905 pf=0.92 status=variable vmaxpu=1.5 vminpu=0.93 daily="OUT_IP_1_Dia_util_DU" 
New "Load.IP_4431_95_M2" bus1="BT86251.3.4" phases=1 conn=delta model=3 kv=0.38 kw = 0.17731852145992905 pf=0.92 status=variable vmaxpu=1.5 vminpu=0.93 daily="OUT_IP_1_Dia_util_DU"
 
New "Load.IP_4432_96_M1" bus1="BT86351.3.4" phases=1 conn=delta model=2 kv=0.38 kw = 0.17731852145992905 pf=0.92 status=variable vmaxpu=1.5 vminpu=0.93 daily="OUT_IP_1_Dia_util_DU" 
New "Load.IP_4432_96_M2" bus1="BT86351.3.4" phases=1 conn=delta model=3 kv=0.38 kw = 0.17731852145992905 pf=0.92 status=variable vmaxpu=1.5 vminpu=0.93 daily="OUT_IP_1_Dia_util_DU"
 
New "Load.IP_4433_97_M1" bus1="BT86341.3.4" phases=1 conn=delta model=2 kv=0.38 kw = 0.17731852145992905 pf=0.92 status=variable vmaxpu=1.5 vminpu=0.93 daily="OUT_IP_1_Dia_util_DU" 
New "Load.IP_4433_97_M2" bus1="BT86341.3.4" phases=1 conn=delta model=3 kv=0.38 kw = 0.17731852145992905 pf=0.92 status=variable vmaxpu=1.5 vminpu=0.93 daily="OUT_IP_1_Dia_util_DU"
 
New "Load.IP_4434_98_M1" bus1="BT86311.3.4" phases=1 conn=delta model=2 kv=0.38 kw = 0.17731852145992905 pf=0.92 status=variable vmaxpu=1.5 vminpu=0.93 daily="OUT_IP_1_Dia_util_DU" 
New "Load.IP_4434_98_M2" bus1="BT86311.3.4" phases=1 conn=delta model=3 kv=0.38 kw = 0.17731852145992905 pf=0.92 status=variable vmaxpu=1.5 vminpu=0.93 daily="OUT_IP_1_Dia_util_DU"
 
New "Load.IP_4435_99_M1" bus1="ET1_214.3.4" phases=1 conn=delta model=2 kv=0.38 kw = 0.17731852145992905 pf=0.92 status=variable vmaxpu=1.5 vminpu=0.93 daily="OUT_IP_1_Dia_util_DU" 
New "Load.IP_4435_99_M2" bus1="ET1_214.3.4" phases=1 conn=delta model=3 kv=0.38 kw = 0.17731852145992905 pf=0.92 status=variable vmaxpu=1.5 vminpu=0.93 daily="OUT_IP_1_Dia_util_DU"
 
New "Load.IP_4436_100_M1" bus1="BT86291.3.4" phases=1 conn=delta model=2 kv=0.38 kw = 0.17731852145992905 pf=0.92 status=variable vmaxpu=1.5 vminpu=0.93 daily="OUT_IP_1_Dia_util_DU" 
New "Load.IP_4436_100_M2" bus1="BT86291.3.4" phases=1 conn=delta model=3 kv=0.38 kw = 0.17731852145992905 pf=0.92 status=variable vmaxpu=1.5 vminpu=0.93 daily="OUT_IP_1_Dia_util_DU"
 
New "Load.IP_4437_101_M1" bus1="BT86281.3.4" phases=1 conn=delta model=2 kv=0.38 kw = 0.17731852145992905 pf=0.92 status=variable vmaxpu=1.5 vminpu=0.93 daily="OUT_IP_1_Dia_util_DU" 
New "Load.IP_4437_101_M2" bus1="BT86281.3.4" phases=1 conn=delta model=3 kv=0.38 kw = 0.17731852145992905 pf=0.92 status=variable vmaxpu=1.5 vminpu=0.93 daily="OUT_IP_1_Dia_util_DU"
 
New "Load.IP_4438_102_M1" bus1="BT86271.3.4" phases=1 conn=delta model=2 kv=0.38 kw = 0.17731852145992905 pf=0.92 status=variable vmaxpu=1.5 vminpu=0.93 daily="OUT_IP_1_Dia_util_DU" 
New "Load.IP_4438_102_M2" bus1="BT86271.3.4" phases=1 conn=delta model=3 kv=0.38 kw = 0.17731852145992905 pf=0.92 status=variable vmaxpu=1.5 vminpu=0.93 daily="OUT_IP_1_Dia_util_DU"
 
New "Load.IP_4439_103_M1" bus1="BT86361.3.4" phases=1 conn=delta model=2 kv=0.38 kw = 0.17731852145992905 pf=0.92 status=variable vmaxpu=1.5 vminpu=0.93 daily="OUT_IP_1_Dia_util_DU" 
New "Load.IP_4439_103_M2" bus1="BT86361.3.4" phases=1 conn=delta model=3 kv=0.38 kw = 0.17731852145992905 pf=0.92 status=variable vmaxpu=1.5 vminpu=0.93 daily="OUT_IP_1_Dia_util_DU"
 
New "Load.IP_4440_104_M1" bus1="BT85911.3.4" phases=1 conn=delta model=2 kv=0.38 kw = 0.17731852145992905 pf=0.92 status=variable vmaxpu=1.5 vminpu=0.93 daily="OUT_IP_1_Dia_util_DU" 
New "Load.IP_4440_104_M2" bus1="BT85911.3.4" phases=1 conn=delta model=3 kv=0.38 kw = 0.17731852145992905 pf=0.92 status=variable vmaxpu=1.5 vminpu=0.93 daily="OUT_IP_1_Dia_util_DU"
 
New "Load.IP_4441_105_M1" bus1="BT86261.3.4" phases=1 conn=delta model=2 kv=0.38 kw = 0.17731852145992905 pf=0.92 status=variable vmaxpu=1.5 vminpu=0.93 daily="OUT_IP_1_Dia_util_DU" 
New "Load.IP_4441_105_M2" bus1="BT86261.3.4" phases=1 conn=delta model=3 kv=0.38 kw = 0.17731852145992905 pf=0.92 status=variable vmaxpu=1.5 vminpu=0.93 daily="OUT_IP_1_Dia_util_DU"
 
New "Load.IP_4443_108_M1" bus1="BT1102.3.4" phases=1 conn=delta model=2 kv=0.38 kw = 0.0 pf=0.92 status=variable vmaxpu=1.5 vminpu=0.93 daily="OUT_IP_1_Dia_util_DU" 
New "Load.IP_4443_108_M2" bus1="BT1102.3.4" phases=1 conn=delta model=3 kv=0.38 kw = 0.0 pf=0.92 status=variable vmaxpu=1.5 vminpu=0.93 daily="OUT_IP_1_Dia_util_DU"
 
New "Load.IP_4444_109_M1" bus1="ET1_61.3.4" phases=1 conn=delta model=2 kv=0.38 kw = 0.0 pf=0.92 status=variable vmaxpu=1.5 vminpu=0.93 daily="OUT_IP_1_Dia_util_DU" 
New "Load.IP_4444_109_M2" bus1="ET1_61.3.4" phases=1 conn=delta model=3 kv=0.38 kw = 0.0 pf=0.92 status=variable vmaxpu=1.5 vminpu=0.93 daily="OUT_IP_1_Dia_util_DU"
 
New "Load.IP_4445_111_M1" bus1="BT4932.3.4" phases=1 conn=delta model=2 kv=0.38 kw = 0.0 pf=0.92 status=variable vmaxpu=1.5 vminpu=0.93 daily="OUT_IP_1_Dia_util_DU" 
New "Load.IP_4445_111_M2" bus1="BT4932.3.4" phases=1 conn=delta model=3 kv=0.38 kw = 0.0 pf=0.92 status=variable vmaxpu=1.5 vminpu=0.93 daily="OUT_IP_1_Dia_util_DU"
 
New "Load.IP_4349_124_M1" bus1="BT84291.3.4" phases=1 conn=delta model=2 kv=0.38 kw = 0.17731852145992905 pf=0.92 status=variable vmaxpu=1.5 vminpu=0.93 daily="OUT_IP_1_Dia_util_DU" 
New "Load.IP_4349_124_M2" bus1="BT84291.3.4" phases=1 conn=delta model=3 kv=0.38 kw = 0.17731852145992905 pf=0.92 status=variable vmaxpu=1.5 vminpu=0.93 daily="OUT_IP_1_Dia_util_DU"
 
New "Load.IP_4350_125_M1" bus1="BT84281.3.4" phases=1 conn=delta model=2 kv=0.38 kw = 0.17731852145992905 pf=0.92 status=variable vmaxpu=1.5 vminpu=0.93 daily="OUT_IP_1_Dia_util_DU" 
New "Load.IP_4350_125_M2" bus1="BT84281.3.4" phases=1 conn=delta model=3 kv=0.38 kw = 0.17731852145992905 pf=0.92 status=variable vmaxpu=1.5 vminpu=0.93 daily="OUT_IP_1_Dia_util_DU"
 
New "Load.IP_4351_126_M1" bus1="BT84271.3.4" phases=1 conn=delta model=2 kv=0.38 kw = 0.17731852145992905 pf=0.92 status=variable vmaxpu=1.5 vminpu=0.93 daily="OUT_IP_1_Dia_util_DU" 
New "Load.IP_4351_126_M2" bus1="BT84271.3.4" phases=1 conn=delta model=3 kv=0.38 kw = 0.17731852145992905 pf=0.92 status=variable vmaxpu=1.5 vminpu=0.93 daily="OUT_IP_1_Dia_util_DU"
 
New "Load.IP_4352_127_M1" bus1="ET1_209.3.4" phases=1 conn=delta model=2 kv=0.38 kw = 0.17731852145992905 pf=0.92 status=variable vmaxpu=1.5 vminpu=0.93 daily="OUT_IP_1_Dia_util_DU" 
New "Load.IP_4352_127_M2" bus1="ET1_209.3.4" phases=1 conn=delta model=3 kv=0.38 kw = 0.17731852145992905 pf=0.92 status=variable vmaxpu=1.5 vminpu=0.93 daily="OUT_IP_1_Dia_util_DU"
 
New "Load.IP_4353_128_M1" bus1="BT84251.3.4" phases=1 conn=delta model=2 kv=0.38 kw = 0.17731852145992905 pf=0.92 status=variable vmaxpu=1.5 vminpu=0.93 daily="OUT_IP_1_Dia_util_DU" 
New "Load.IP_4353_128_M2" bus1="BT84251.3.4" phases=1 conn=delta model=3 kv=0.38 kw = 0.17731852145992905 pf=0.92 status=variable vmaxpu=1.5 vminpu=0.93 daily="OUT_IP_1_Dia_util_DU"
 
New "Load.IP_4354_129_M1" bus1="BT84231.3.4" phases=1 conn=delta model=2 kv=0.38 kw = 0.17731852145992905 pf=0.92 status=variable vmaxpu=1.5 vminpu=0.93 daily="OUT_IP_1_Dia_util_DU" 
New "Load.IP_4354_129_M2" bus1="BT84231.3.4" phases=1 conn=delta model=3 kv=0.38 kw = 0.17731852145992905 pf=0.92 status=variable vmaxpu=1.5 vminpu=0.93 daily="OUT_IP_1_Dia_util_DU"
 
New "Load.IP_4355_130_M1" bus1="BT84221.3.4" phases=1 conn=delta model=2 kv=0.38 kw = 0.17731852145992905 pf=0.92 status=variable vmaxpu=1.5 vminpu=0.93 daily="OUT_IP_1_Dia_util_DU" 
New "Load.IP_4355_130_M2" bus1="BT84221.3.4" phases=1 conn=delta model=3 kv=0.38 kw = 0.17731852145992905 pf=0.92 status=variable vmaxpu=1.5 vminpu=0.93 daily="OUT_IP_1_Dia_util_DU"
 
New "Load.IP_4356_131_M1" bus1="BT84311.3.4" phases=1 conn=delta model=2 kv=0.38 kw = 0.17731852145992905 pf=0.92 status=variable vmaxpu=1.5 vminpu=0.93 daily="OUT_IP_1_Dia_util_DU" 
New "Load.IP_4356_131_M2" bus1="BT84311.3.4" phases=1 conn=delta model=3 kv=0.38 kw = 0.17731852145992905 pf=0.92 status=variable vmaxpu=1.5 vminpu=0.93 daily="OUT_IP_1_Dia_util_DU"
 
New "Load.IP_4357_132_M1" bus1="BT84321.3.4" phases=1 conn=delta model=2 kv=0.38 kw = 0.17731852145992905 pf=0.92 status=variable vmaxpu=1.5 vminpu=0.93 daily="OUT_IP_1_Dia_util_DU" 
New "Load.IP_4357_132_M2" bus1="BT84321.3.4" phases=1 conn=delta model=3 kv=0.38 kw = 0.17731852145992905 pf=0.92 status=variable vmaxpu=1.5 vminpu=0.93 daily="OUT_IP_1_Dia_util_DU"
 
New "Load.IP_4358_133_M1" bus1="BT75791.3.4" phases=1 conn=delta model=2 kv=0.38 kw = 0.10805347401464425 pf=0.92 status=variable vmaxpu=1.5 vminpu=0.93 daily="OUT_IP_1_Dia_util_DU" 
New "Load.IP_4358_133_M2" bus1="BT75791.3.4" phases=1 conn=delta model=3 kv=0.38 kw = 0.10805347401464425 pf=0.92 status=variable vmaxpu=1.5 vminpu=0.93 daily="OUT_IP_1_Dia_util_DU"
 
New "Load.IP_4359_134_M1" bus1="BT75781.3.4" phases=1 conn=delta model=2 kv=0.38 kw = 0.10805347401464425 pf=0.92 status=variable vmaxpu=1.5 vminpu=0.93 daily="OUT_IP_1_Dia_util_DU" 
New "Load.IP_4359_134_M2" bus1="BT75781.3.4" phases=1 conn=delta model=3 kv=0.38 kw = 0.10805347401464425 pf=0.92 status=variable vmaxpu=1.5 vminpu=0.93 daily="OUT_IP_1_Dia_util_DU"
 
New "Load.IP_2327_135_M1" bus1="BT5262.3.4" phases=1 conn=delta model=2 kv=0.38 kw = 0.17731852145992905 pf=0.92 status=variable vmaxpu=1.5 vminpu=0.93 daily="OUT_IP_1_Dia_util_DU" 
New "Load.IP_2327_135_M2" bus1="BT5262.3.4" phases=1 conn=delta model=3 kv=0.38 kw = 0.17731852145992905 pf=0.92 status=variable vmaxpu=1.5 vminpu=0.93 daily="OUT_IP_1_Dia_util_DU"
 
New "Load.IP_4360_136_M1" bus1="BT85281.3.4" phases=1 conn=delta model=2 kv=0.38 kw = 0.17731852145992905 pf=0.92 status=variable vmaxpu=1.5 vminpu=0.93 daily="OUT_IP_1_Dia_util_DU" 
New "Load.IP_4360_136_M2" bus1="BT85281.3.4" phases=1 conn=delta model=3 kv=0.38 kw = 0.17731852145992905 pf=0.92 status=variable vmaxpu=1.5 vminpu=0.93 daily="OUT_IP_1_Dia_util_DU"
 
New "Load.IP_4361_137_M1" bus1="BT85271.3.4" phases=1 conn=delta model=2 kv=0.38 kw = 0.17731852145992905 pf=0.92 status=variable vmaxpu=1.5 vminpu=0.93 daily="OUT_IP_1_Dia_util_DU" 
New "Load.IP_4361_137_M2" bus1="BT85271.3.4" phases=1 conn=delta model=3 kv=0.38 kw = 0.17731852145992905 pf=0.92 status=variable vmaxpu=1.5 vminpu=0.93 daily="OUT_IP_1_Dia_util_DU"
 
New "Load.IP_4362_138_M1" bus1="BT85261.3.4" phases=1 conn=delta model=2 kv=0.38 kw = 0.17731852145992905 pf=0.92 status=variable vmaxpu=1.5 vminpu=0.93 daily="OUT_IP_1_Dia_util_DU" 
New "Load.IP_4362_138_M2" bus1="BT85261.3.4" phases=1 conn=delta model=3 kv=0.38 kw = 0.17731852145992905 pf=0.92 status=variable vmaxpu=1.5 vminpu=0.93 daily="OUT_IP_1_Dia_util_DU"
 
New "Load.IP_4363_139_M1" bus1="BT85251.3.4" phases=1 conn=delta model=2 kv=0.38 kw = 0.17731852145992905 pf=0.92 status=variable vmaxpu=1.5 vminpu=0.93 daily="OUT_IP_1_Dia_util_DU" 
New "Load.IP_4363_139_M2" bus1="BT85251.3.4" phases=1 conn=delta model=3 kv=0.38 kw = 0.17731852145992905 pf=0.92 status=variable vmaxpu=1.5 vminpu=0.93 daily="OUT_IP_1_Dia_util_DU"
 
New "Load.IP_4367_144_M1" bus1="BT85341.3.4" phases=1 conn=delta model=2 kv=0.38 kw = 0.28398669452566766 pf=0.92 status=variable vmaxpu=1.5 vminpu=0.93 daily="OUT_IP_1_Dia_util_DU" 
New "Load.IP_4367_144_M2" bus1="BT85341.3.4" phases=1 conn=delta model=3 kv=0.38 kw = 0.28398669452566766 pf=0.92 status=variable vmaxpu=1.5 vminpu=0.93 daily="OUT_IP_1_Dia_util_DU"
 
New "Load.IP_4368_145_M1" bus1="BT4901.3.4" phases=1 conn=delta model=2 kv=0.38 kw = 0.2756748888322334 pf=0.92 status=variable vmaxpu=1.5 vminpu=0.93 daily="OUT_IP_1_Dia_util_DU" 
New "Load.IP_4368_145_M2" bus1="BT4901.3.4" phases=1 conn=delta model=3 kv=0.38 kw = 0.2756748888322334 pf=0.92 status=variable vmaxpu=1.5 vminpu=0.93 daily="OUT_IP_1_Dia_util_DU"
 
New "Load.IP_4369_146_M1" bus1="BT66381.3.4" phases=1 conn=delta model=2 kv=0.38 kw = 0.17731852145992905 pf=0.92 status=variable vmaxpu=1.5 vminpu=0.93 daily="OUT_IP_1_Dia_util_DU" 
New "Load.IP_4369_146_M2" bus1="BT66381.3.4" phases=1 conn=delta model=3 kv=0.38 kw = 0.17731852145992905 pf=0.92 status=variable vmaxpu=1.5 vminpu=0.93 daily="OUT_IP_1_Dia_util_DU"
 
New "Load.IP_4370_147_M1" bus1="BT85351.3.4" phases=1 conn=delta model=2 kv=0.38 kw = 0.17731852145992905 pf=0.92 status=variable vmaxpu=1.5 vminpu=0.93 daily="OUT_IP_1_Dia_util_DU" 
New "Load.IP_4370_147_M2" bus1="BT85351.3.4" phases=1 conn=delta model=3 kv=0.38 kw = 0.17731852145992905 pf=0.92 status=variable vmaxpu=1.5 vminpu=0.93 daily="OUT_IP_1_Dia_util_DU"
 
New "Load.IP_4373_150_M1" bus1="BT75471.3.4" phases=1 conn=delta model=2 kv=0.38 kw = 0.17731852145992905 pf=0.92 status=variable vmaxpu=1.5 vminpu=0.93 daily="OUT_IP_1_Dia_util_DU" 
New "Load.IP_4373_150_M2" bus1="BT75471.3.4" phases=1 conn=delta model=3 kv=0.38 kw = 0.17731852145992905 pf=0.92 status=variable vmaxpu=1.5 vminpu=0.93 daily="OUT_IP_1_Dia_util_DU"
 
New "Load.IP_4374_151_M1" bus1="BT77981.3.4" phases=1 conn=delta model=2 kv=0.38 kw = 0.17731852145992905 pf=0.92 status=variable vmaxpu=1.5 vminpu=0.93 daily="OUT_IP_1_Dia_util_DU" 
New "Load.IP_4374_151_M2" bus1="BT77981.3.4" phases=1 conn=delta model=3 kv=0.38 kw = 0.17731852145992905 pf=0.92 status=variable vmaxpu=1.5 vminpu=0.93 daily="OUT_IP_1_Dia_util_DU"
 
New "Load.IP_4375_152_M1" bus1="BT77991.3.4" phases=1 conn=delta model=2 kv=0.38 kw = 0.17731852145992905 pf=0.92 status=variable vmaxpu=1.5 vminpu=0.93 daily="OUT_IP_1_Dia_util_DU" 
New "Load.IP_4375_152_M2" bus1="BT77991.3.4" phases=1 conn=delta model=3 kv=0.38 kw = 0.17731852145992905 pf=0.92 status=variable vmaxpu=1.5 vminpu=0.93 daily="OUT_IP_1_Dia_util_DU"
 
New "Load.IP_4376_153_M1" bus1="BT85381.3.4" phases=1 conn=delta model=2 kv=0.38 kw = 0.17731852145992905 pf=0.92 status=variable vmaxpu=1.5 vminpu=0.93 daily="OUT_IP_1_Dia_util_DU" 
New "Load.IP_4376_153_M2" bus1="BT85381.3.4" phases=1 conn=delta model=3 kv=0.38 kw = 0.17731852145992905 pf=0.92 status=variable vmaxpu=1.5 vminpu=0.93 daily="OUT_IP_1_Dia_util_DU"
 
New "Load.IP_4377_154_M1" bus1="BT85391.3.4" phases=1 conn=delta model=2 kv=0.38 kw = 0.17731852145992905 pf=0.92 status=variable vmaxpu=1.5 vminpu=0.93 daily="OUT_IP_1_Dia_util_DU" 
New "Load.IP_4377_154_M2" bus1="BT85391.3.4" phases=1 conn=delta model=3 kv=0.38 kw = 0.17731852145992905 pf=0.92 status=variable vmaxpu=1.5 vminpu=0.93 daily="OUT_IP_1_Dia_util_DU"
 
New "Load.IP_4383_160_M1" bus1="BT73591.3.4" phases=1 conn=delta model=2 kv=0.38 kw = 0.17731852145992905 pf=0.92 status=variable vmaxpu=1.5 vminpu=0.93 daily="OUT_IP_1_Dia_util_DU" 
New "Load.IP_4383_160_M2" bus1="BT73591.3.4" phases=1 conn=delta model=3 kv=0.38 kw = 0.17731852145992905 pf=0.92 status=variable vmaxpu=1.5 vminpu=0.93 daily="OUT_IP_1_Dia_util_DU"
 
New "Load.IP_3918_168_M1" bus1="BT81432.3.4" phases=1 conn=delta model=2 kv=0.38 kw = 0.10805347401464425 pf=0.92 status=variable vmaxpu=1.5 vminpu=0.93 daily="OUT_IP_1_Dia_util_DU" 
New "Load.IP_3918_168_M2" bus1="BT81432.3.4" phases=1 conn=delta model=3 kv=0.38 kw = 0.10805347401464425 pf=0.92 status=variable vmaxpu=1.5 vminpu=0.93 daily="OUT_IP_1_Dia_util_DU"
 
New "Load.IP_4294_177_M1" bus1="BT69541.3.4" phases=1 conn=delta model=2 kv=0.38 kw = 0.17731852145992905 pf=0.92 status=variable vmaxpu=1.5 vminpu=0.93 daily="OUT_IP_1_Dia_util_DU" 
New "Load.IP_4294_177_M2" bus1="BT69541.3.4" phases=1 conn=delta model=3 kv=0.38 kw = 0.17731852145992905 pf=0.92 status=variable vmaxpu=1.5 vminpu=0.93 daily="OUT_IP_1_Dia_util_DU"
 
New "Load.IP_4295_178_M1" bus1="BT69531.3.4" phases=1 conn=delta model=2 kv=0.38 kw = 0.17731852145992905 pf=0.92 status=variable vmaxpu=1.5 vminpu=0.93 daily="OUT_IP_1_Dia_util_DU" 
New "Load.IP_4295_178_M2" bus1="BT69531.3.4" phases=1 conn=delta model=3 kv=0.38 kw = 0.17731852145992905 pf=0.92 status=variable vmaxpu=1.5 vminpu=0.93 daily="OUT_IP_1_Dia_util_DU"
 
New "Load.IP_4296_179_M1" bus1="BT69521.3.4" phases=1 conn=delta model=2 kv=0.38 kw = 0.17731852145992905 pf=0.92 status=variable vmaxpu=1.5 vminpu=0.93 daily="OUT_IP_1_Dia_util_DU" 
New "Load.IP_4296_179_M2" bus1="BT69521.3.4" phases=1 conn=delta model=3 kv=0.38 kw = 0.17731852145992905 pf=0.92 status=variable vmaxpu=1.5 vminpu=0.93 daily="OUT_IP_1_Dia_util_DU"
 
New "Load.IP_1292_180_M1" bus1="BT18262.3.4" phases=1 conn=delta model=2 kv=0.38 kw = 0.35325174197095244 pf=0.92 status=variable vmaxpu=1.5 vminpu=0.93 daily="OUT_IP_1_Dia_util_DU" 
New "Load.IP_1292_180_M2" bus1="BT18262.3.4" phases=1 conn=delta model=3 kv=0.38 kw = 0.35325174197095244 pf=0.92 status=variable vmaxpu=1.5 vminpu=0.93 daily="OUT_IP_1_Dia_util_DU"
 
New "Load.IP_2012_181_M1" bus1="BT67952.3.4" phases=1 conn=delta model=2 kv=0.38 kw = 0.05125613510951074 pf=0.92 status=variable vmaxpu=1.5 vminpu=0.93 daily="OUT_IP_1_Dia_util_DU" 
New "Load.IP_2012_181_M2" bus1="BT67952.3.4" phases=1 conn=delta model=3 kv=0.38 kw = 0.05125613510951074 pf=0.92 status=variable vmaxpu=1.5 vminpu=0.93 daily="OUT_IP_1_Dia_util_DU"
 
New "Load.IP_2335_182_M1" bus1="BT15932.3.4" phases=1 conn=delta model=2 kv=0.38 kw = 0.17731852145992905 pf=0.92 status=variable vmaxpu=1.5 vminpu=0.93 daily="OUT_IP_1_Dia_util_DU" 
New "Load.IP_2335_182_M2" bus1="BT15932.3.4" phases=1 conn=delta model=3 kv=0.38 kw = 0.17731852145992905 pf=0.92 status=variable vmaxpu=1.5 vminpu=0.93 daily="OUT_IP_1_Dia_util_DU"
 
New "Load.IP_4275_183_M1" bus1="BT2842.3.4" phases=1 conn=delta model=2 kv=0.38 kw = 0.28398669452566766 pf=0.92 status=variable vmaxpu=1.5 vminpu=0.93 daily="OUT_IP_1_Dia_util_DU" 
New "Load.IP_4275_183_M2" bus1="BT2842.3.4" phases=1 conn=delta model=3 kv=0.38 kw = 0.28398669452566766 pf=0.92 status=variable vmaxpu=1.5 vminpu=0.93 daily="OUT_IP_1_Dia_util_DU"
 
New "Load.IP_4297_184_M1" bus1="BT84931.3.4" phases=1 conn=delta model=2 kv=0.38 kw = 0.17731852145992905 pf=0.92 status=variable vmaxpu=1.5 vminpu=0.93 daily="OUT_IP_1_Dia_util_DU" 
New "Load.IP_4297_184_M2" bus1="BT84931.3.4" phases=1 conn=delta model=3 kv=0.38 kw = 0.17731852145992905 pf=0.92 status=variable vmaxpu=1.5 vminpu=0.93 daily="OUT_IP_1_Dia_util_DU"
 
New "Load.IP_4298_185_M1" bus1="BT85031.3.4" phases=1 conn=delta model=2 kv=0.38 kw = 0.17731852145992905 pf=0.92 status=variable vmaxpu=1.5 vminpu=0.93 daily="OUT_IP_1_Dia_util_DU" 
...